Circuit: * C:\Users\Marqu\OneDrive\Desktop\senior_prep_workspace\senior_repo\senior_prep\LT_SPICE\class_AB_amp.asc

Direct Newton iteration for .op point succeeded.

Date: Thu Sep 09 11:30:28 2021
Total elapsed time: 0.048 seconds.

tnom = 27
temp = 27
method = modified trap
totiter = 2381
traniter = 2375
tranpoints = 1120
accept = 1094
rejected = 26
matrix size = 23
fillins = 19
solver = Normal
Matrix Compiler1: 2.46 KB object code size  0.3/0.2/[0.1]
Matrix Compiler2: 2.18 KB object code size  0.2/0.2/[0.1]

